Everything is red.
There are volcanoes.
Quite red!
it's blue
Maybe it's purple??
I merged these.
new line.

